[TITLE]
남청주현도

[JUNCTIONS]
;ID              Elev            Demand
J-01               75.96              0
J-02               77.60              0
J-03               69.11              0
J-04               52.89              0
J-05               42.99              0
J-06               41.45              0
J-07               52.83              0
J-08               44.98              0
J-09               47.09              0
J-10               49.10              0
J-11               55.05              0
J-12               50.64              0
J-13               48.16              0
J-14               51.51              0
J-15               53.50              0
J-16               49.99              0
J-17               51.03              0
J-18               52.32              0
J-19               52.65              0
J-20               41.63              0
J-21               50.79              0
J-22               45.84              0
J-23               45.20              0
J-24               48.63              0
J-25               51.35              0
J-26               50.68              0
J-27               42.89              0
J-28               42.82              0
J-29               53.17              0
J-30               49.89              0
J-31               53.80              0
J-32               50.76              0
J-33               65.00              0
J-34               45.75              0
J-35               42.67              0
J-36               64.53              0
J-37               62.55              0
J-38               57.56              0
J-39               59.76              0
J-40               69.80              0
J-41               65.65              0
J-42               60.83              0
J-43               52.50              0
J-44               49.04              0
J-45               71.85              0
J-46               62.60              0
J-47               61.63              0
J-48               53.31              0
J-49               48.75              0
J-50               49.45              0
J-51               47.88              0
J-52               48.98              0
J-53               52.11              0
J-54               58.57              0
J-55               52.26              0
J-56               47.82              0
J-57               64.20              0
J-58               53.47              0
J-59               60.01              0
J-60               64.26              0
J-61               48.48              0
J-62               49.00              0
J-63               49.52              0
J-64               46.94              0
J-65               39.71              0
J-66               38.76              0
J-67               46.33              0
J-68               44.24              0
J-69               43.57              0
J-70               41.63              0
J-71               41.49              0
J-72               40.18              0
J-73               43.13              0
J-74               40.18              0
J-75               51.63              0
J-76               45.79              0
J-77               53.42              0
J-78               52.29              0
J-79               52.84              0
J-80               60.88              0
J-81               60.88              0
J-82               82.44              0
J-83               88.00              0
J-84               82.44              0
J-85               88.00              0
J-86               45.43              0
J-87               43.60              0
J-88               43.60              0

[RESERVOIRS]
;ID              Head
Reservoir               88.00

[PIPES]
;ID              Node1           Node2           Length          Diameter        Roughness       MinorLoss       Status
L-001               J-55              J-52              889.98              200              110              0               Open
L-002               J-43              J-80              129.47              400              110              0               Open
L-003               J-84              J-02              137.74              100              110              0               Open
L-005               J-81              J-03              142.64              100              110              0               Open
L-006               J-03              J-02              350.39              100              110              0               Open
L-007               J-13              J-10              47.83              100              110              0               Open
L-008               J-10              J-16              49.96              100              110              0               Open
L-009               J-16              J-50              27.95              150              110              0               Open
L-010               J-14              J-08              322.09              100              110              0               Open
L-011               J-69              J-34              75.2              150              110              0               Open
L-013               J-32              J-30              54.21              100              110              0               Open
L-014               J-39              J-40              171.28              100              110              0               Open
L-015               J-21              J-07              57.49              80              110              0               Open
L-016               J-07              J-11              65.45              80              110              0               Open
L-017               J-11              J-38              63.45              80              110              0               Open
L-018               J-22              J-51              57.49              80              110              0               Open
L-019               J-51              J-12              63.46              80              110              0               Open
L-020               J-12              J-04              61.46              80              110              0               Open
L-021               J-38              J-04              123.86              80              110              0               Open
L-023               J-63              J-56              35.31              100              110              0               Open
L-024               J-56              J-86              38              100              110              0               Open
L-025               J-87              J-20              46.88              80              110              0               Open
L-026               J-71              J-05              47.57              100              110              0               Open
L-027               J-27              J-05              25.98              100              110              0               Open
L-028               J-05              J-87              92.64              100              110              0               Open
L-029               J-88              J-73              124.95              80              110              0               Open
L-030               J-56              J-24              87.72              80              110              0               Open
L-031               J-86              J-23              102.98              80              110              0               Open
L-032               J-06              J-72              47.64              80              110              0               Open
L-033               J-70              J-28              45              100              110              0               Open
L-034               J-51              J-07              123.79              80              110              0               Open
L-035               J-15              J-09              322.3              100              110              0               Open
L-036               J-16              J-09              39.66              100              110              0               Open
L-037               J-09              J-08              40.34              100              110              0               Open
L-038               J-10              J-17              56.7              80              110              0               Open
L-040               J-12              J-11              123.81              80              110              0               Open
L-042               J-60              J-41              42.71              300              110              0               Open
L-044               J-15              J-14              38.24              100              110              0               Open
L-045               J-16              J-18              56.92              80              110              0               Open
L-046               J-18              J-17              45.39              80              110              0               Open
L-048               J-30              J-67              153.19              150              110              0               Open
L-049               J-20              J-74              155.11              80              110              0               Open
L-050               J-71              J-20              92.66              80              110              0               Open
L-051               J-22              J-21              123.79              80              110              0               Open
L-052               J-27              J-23              40.06              100              110              0               Open
L-053               J-23              J-24              40.98              100              110              0               Open
L-054               J-24              J-25              36.11              100              110              0               Open
L-055               J-65              J-72              19.4              80              110              0               Open
L-056               J-63              J-25              86.37              100              110              0               Open
L-057               J-33              J-36              143.73              200              110              0               Open
L-058               J-36              J-57              97.56              200              110              0               Open
L-059               J-57              J-60              48.9              300              110              0               Open
L-060               J-26              J-75              17.85              100              110              0               Open
L-061               J-76              J-28              101.24              100              110              0               Open
L-062               J-28              J-27              20.76              100              110              0               Open
L-063               J-29              J-58              19.7              150              110              0               Open
L-064               J-30              J-29              159.98              150              110              0               Open
L-065               J-78              J-48              27.36              150              110              0               Open
L-066               J-48              J-31              24.29              80              110              0               Open
L-067               J-32              J-37              345.88              200              110              0               Open
L-068               J-37              J-33              300.24              200              110              0               Open
L-069               J-59              J-42              101              200              110              0               Open
L-070               J-34              J-67              49.88              100              110              0               Open
L-071               J-42              J-41              183.99              200              110              0               Open
L-072               J-69              J-35              195.51              80              110              0               Open
L-074               J-81              J-80              3.5              150              110              0               Open
L-075               J-84              J-82              3.28              150              110              0               Open
L-076               J-38              J-54              53.28              100              110              0               Open
L-077               J-46              J-39              181.4              100              110              0               Open
L-078               J-40              J-45              175.88              100              110              0               Open
L-079               J-45              J-41              151.27              150              110              0               Open
L-080               J-42              J-47              189.96              200              110              0               Open
L-081               J-46              J-47              13.84              100              110              0               Open
L-082               J-78              J-75              24.69              150              110              0               Open
L-083               J-62              J-44              19.93              400              110              0               Open
L-084               J-44              J-43              126.71              400              110              0               Open
L-085               J-46              J-45              171.74              100              110              0               Open
L-086               J-54              J-47              389.9              200              110              0               Open
L-088               J-53              J-48              55.64              200              110              0               Open
L-090               J-50              J-52              25.4              100              110              0               Open
L-091               J-52              J-51              39.82              100              110              0               Open
L-092               J-53              J-55              32.05              200              110              0               Open
L-093               J-55              J-54              148.95              200              110              0               Open
L-095               J-57              J-59              182.22              150              110              0               Open
L-096               J-59              J-58              292.64              150              110              0               Open
L-099               J-73              J-64              64.93              100              110              0               Open
L-100               J-64              J-63              35.27              100              110              0               Open
L-103               J-69              J-68              55.07              150              110              0               Open
L-105               J-72              J-74              1.84              80              110              0               Open
L-106               J-74              J-73              47.29              100              110              0               Open
L-107               J-75              J-77              49.18              100              110              0               Open
L-109               J-77              J-79              24.76              100              110              0               Open
L-110               J-79              J-78              49.18              100              110              0               Open
L-111               J-83              J-85              3.5              400              110              0               Open
L-112               J-85              Reservoir              3.5              400              110              0               Open
L-113               J-82              J-80              352.39              400              110              0               Open
L-114               J-84              J-81              352.8              150              110              0               Open
L-117               J-86              J-88              28.93              100              110              0               Open
L-118               J-88              J-87              4.93              100              110              0               Open
P107               J-34              J-32              170.91              100              110              0               Open
P11               J-77              J-76              149.13              100              110              0               Open
P115               J-02              J-01              226.68              100              110              0               Open
P15               J-71              J-70              88.78              100              110              0               Open
P17               J-68              J-67              72.92              100              110              0               Open
P18               J-66              J-65              228.45              100              110              0               Open
P21               J-62              J-61              112.08              100              110              0               Open
P22               J-61              J-60              897.2              100              110              0               Open
P25               J-64              J-56              65.27              100              110              0               Open
P3               J-85              J-84              288.86              100              110              0               Open
P30               J-62              J-49              92.34              100              110              0               Open
P32               J-50              J-53              177.33              100              110              0               Open
P4               J-83              J-82              287.51              100              110              0               Open
P46               J-37              J-36              376.32              100              110              0               Open
P72               J-76              J-19              162.48              100              110              0               Open
P76               J-13              J-15              251.7              100              110              0               Open
P78               J-13              J-26              158.62              100              110              0               Open
P80               J-17              J-26              106.03              100              110              0               Open
P97               J-19              J-70              241.22              100              110              0               Open

[VERTICES]
P3 238796.03 429984.56
P4 238797.48 429987.75
L-114 238651.12 430098.63
L-114 238470.08 430327.39
L-113 238653.86 430100.81
L-113 238472.82 430329.56
L-112 238920.95 429927.87
P11 238368 432326.24
P11 238378.83 432338.08
P11 238383.39 432352.77
P11 238389.09 432419.19
P11 238390.21 432432.26
P11 238391.4 432446.07
P11 238392.27 432456.25
L-107 238330.42 432300.78
L-107 238357.87 432319.24
L-106 238323.51 432806.69
P15 238469.54 432611.04
P15 238470.04 432596.07
P15 238471.08 432564.36
L-103 237910.84 432235.4
P17 237918.79 432190.12
P17 237915.65 432183.44
P18 238242.51 433004.25
P18 238303 432963.48
P18 238367.05 432846.78
L-100 238293.4 432708.51
L-099 238311.56 432796.27
L-099 238304.28 432779.1
P21 238249.89 430546.57
P21 238235.46 430544.49
P21 238191.53 430550.32
P22 238163.65 430570.8
P22 238162.07 430574.71
P22 238162.16 430574.92
P22 238162.56 430575.85
P22 238162.96 430576.79
P22 238163.36 430577.73
P22 238163.75 430578.67
P22 238176.08 430611.21
P22 238179.3 430612.76
P22 238183.37 430625.19
P22 238181.61 430628.44
P22 238202.02 430739.23
P22 238202.1 430740.25
P22 238202.17 430741.27
P22 238202.23 430742.29
P22 238202.3 430743.31
P22 238202.37 430744.32
P22 238202.43 430745.34
P22 238202.49 430746.36
P22 238202.55 430747.38
P22 238202.6 430748.4
P22 238202.66 430749.41
P22 238202.71 430750.43
P22 238202.76 430751.45
P22 238202.81 430752.46
P22 238202.86 430753.48
P22 238202.91 430754.5
P22 238202.95 430755.51
P22 238202.99 430756.53
P22 238203.03 430757.55
P22 238203.07 430758.56
P22 238203.11 430759.58
P22 238203.15 430760.59
P22 238203.18 430761.61
P22 238203.22 430762.62
P22 238203.25 430763.64
P22 238203.28 430764.65
P22 238203.29 430764.88
P22 238217.1 430776.57
P22 238217.52 430781.59
P22 238217.64 430783.65
P22 238203.66 430790.27
P22 238203.66 430790.94
P22 238203.66 430791.95
P22 238203.66 430792.95
P22 238203.66 430793.96
P22 238203.66 430794.97
P22 238203.66 430795.97
P22 238203.66 430796.98
P22 238203.66 430797.99
P22 238203.66 430798.99
P22 238203.65 430800
P22 238203.65 430801
P22 238203.65 430802.01
P22 238203.64 430803.01
P22 238203.64 430804.02
P22 238203.63 430805.02
P22 238203.63 430806.03
P22 238203.62 430807.03
P22 238203.61 430808.03
P22 238203.61 430809.04
P22 238203.6 430810.04
P22 238203.59 430811.04
P22 238203.59 430812.04
P22 238203.58 430813.05
P22 238203.57 430814.05
P22 238203.56 430815.05
P22 238203.55 430816.05
P22 238203.55 430817.05
P22 238203.54 430818.05
P22 238203.53 430819.05
P22 238203.52 430820.05
P22 238203.34 430842.35
P22 238207.72 431126.27
P22 238210.87 431206.76
P22 238210.91 431207.76
P22 238210.95 431208.76
P22 238210.99 431209.76
P22 238211.03 431210.76
P22 238211.06 431211.77
P22 238211.1 431212.77
P22 238211.14 431213.77
P22 238211.18 431214.77
P22 238211.22 431215.77
P22 238211.25 431216.78
P22 238211.29 431217.78
P22 238211.33 431218.79
P22 238211.36 431219.79
P22 238211.4 431220.8
P22 238211.43 431221.8
P22 238211.47 431222.81
P22 238211.5 431223.82
P22 238211.53 431224.83
P22 238211.57 431225.83
P22 238211.6 431226.84
P22 238211.63 431227.85
P22 238211.66 431228.86
P22 238211.68 431229.88
P22 238211.71 431230.89
P22 238211.74 431231.9
P22 238211.76 431232.91
P22 238211.79 431233.92
P22 238211.81 431234.94
P22 238211.83 431235.95
P22 238211.85 431236.96
P22 238211.87 431237.98
P22 238211.89 431238.99
P22 238211.9 431240.01
P22 238211.92 431241.02
P22 238211.93 431242.04
P22 238211.94 431243.06
P22 238211.95 431244.07
P22 238211.96 431245.09
P22 238211.96 431246.11
P22 238211.97 431247.13
P22 238211.97 431248.15
P22 238211.97 431249.17
P22 238211.97 431250.19
P22 238211.97 431251.21
P22 238211.96 431252.23
P22 238211.96 431253.25
P22 238211.95 431254.27
P22 238211.94 431255.3
P22 238211.92 431256.32
P22 238211.91 431257.34
P22 238207.61 431313
P22 238212.55 431319.51
P22 238210.59 431331.4
P22 238201.61 431371.57
P22 238201.51 431371.97
P22 238201.23 431372.97
P22 238200.96 431373.96
P22 238200.68 431374.96
P22 238200.41 431375.96
P22 238200.13 431376.95
P22 238199.84 431377.95
P22 238199.56 431378.94
P22 238199.28 431379.93
P22 238198.99 431380.92
P22 238198.7 431381.91
P22 238198.41 431382.89
P22 238198.12 431383.88
P22 238197.83 431384.86
P22 238197.53 431385.85
P22 238197.24 431386.83
P22 238196.94 431387.81
P22 238196.64 431388.79
P22 238196.34 431389.77
P22 238196.04 431390.75
P22 238195.74 431391.72
P22 238195.44 431392.7
P22 238195.14 431393.67
P22 238194.83 431394.65
P22 238194.53 431395.62
P22 238194.22 431396.59
P22 238193.91 431397.56
P22 238193.6 431398.53
P22 238193.3 431399.49
P22 238192.99 431400.46
P22 238192.68 431401.42
P22 238192.37 431402.39
P22 238192.06 431403.35
P22 238191.74 431404.32
P22 238191.43 431405.28
P22 238191.12 431406.24
P22 238190.81 431407.2
P22 238189.62 431410.83
L-096 238026.48 431749.49
L-096 237993.67 431851.43
L-095 238126.36 431447.63
P25 238328.38 432738.47
L-091 238136.98 432184.7
P30 238330.64 430605.81
L-088 238316.53 432220.54
L-088 238330.17 432232.93
L-088 238345.19 432246.59
L-088 238346.21 432247.52
L-088 238349.95 432250.8
P32 238224.5 432210
P32 238264.59 432210.45
P32 238286.63 432210.7
P32 238286.6 432210.7
P32 238293.77 432213.31
P32 238307.74 432217.59
L-086 238343.11 431841.89
L-084 238291.59 430526.86
L-084 238318.21 430498.04
L-084 238364.81 430464.99
L-084 238364.79 430464.97
L-080 238239.87 431630.89
L-080 238262.34 431633.79
L-080 238344.61 431635.09
L-078 238377.22 431464.4
P46 237971.57 431679.29
P46 237994.67 431585.14
L-072 237784.51 432273.57
L-068 237895.23 431546.84
L-067 237878.73 431898.48
L-067 237880.88 431864.19
L-067 237882.55 431837.55
L-067 237887.31 431761.54
L-064 237935.43 431959.84
L-064 237937.26 431954.11
L-056 238292.38 432693.03
L-054 238316.88 432617.22
L-053 238335.83 432613.4
L-049 238436.46 432727.61
L-048 237911.37 432049.71
L-048 237906.12 432081.77
L-048 237905.08 432091.11
P72 238416.98 432463.53
P72 238407.61 432354.23
P72 238410.5 432344.45
P76 238196.3 432527.78
P76 238169.12 432567.62
P78 238212.11 432331.08
P78 238240.7 432321.02
P80 238274.88 432270.02
P80 238290.55 432273.22
L-028 238404.42 432623.34
L-027 238404.42 432601.31
P97 238446.14 432386.14
P107 237847.24 432162.28
P107 237845.87 432156.04
P107 237848.39 432092.62
P107 237858.04 432047.93
P107 237865.25 432011.26
L-011 237852.4 432185.8
L-010 238082.1 432357.19
P115 238521.68 429952.23
P115 238483.43 429869.16
L-002 238395.29 430434.8
L-002 238437.78 430371.61
L-002 238449.82 430354.27
L-001 238224.79 432185
L-001 238314.53 432186.02
L-001 238224.79 432185
L-001 238314.53 432186.02
L-001 238224.79 432185
L-001 238136.91 432191.76
L-001 238136.91 432191.76
L-001 238224.79 432185
L-001 238224.79 432185
L-001 238136.91 432191.76
L-001 238136.91 432191.76
L-001 238224.79 432185
L-001 238224.79 432185

[OPTIONS]
 Units              CMD
 Headloss           H-W
 Specific Gravity   1
 Viscosity          1
 Trials             500
 Accuracy           0.001
 CHECKFREQ          2
 MAXCHECK           10
 DAMPLIMIT          0
 Unbalanced         Continue 10
 Pattern            1
 Demand Multiplier  1.0
 Emitter Exponent   0.5
 Quality            None mg/L
 Diffusivity        1
 Tolerance          0.01

[COORDINATES]
J-01 238486.33 429793.6
J-02 238565.71 429987.08
J-03 238343.66 430258.13
J-04 238263.4 432158.33
J-05 238404.42 432611.04
J-06 238331.32 432868.18
J-07 238144.92 432028.36
J-08 238063.38 432259.67
J-09 238102.99 432252.08
J-10 238151.37 432293.69
J-11 238210.28 432031.68
J-12 238202.01 432155.21
J-13 238160.38 432340.66
J-14 238124.09 432575.99
J-15 238161.69 432569
J-16 238141.95 432244.62
J-17 238207.06 432283.02
J-18 238198.5 432238.44
J-19 238421.69 432330.03
J-20 238447.12 432703.57
J-21 238087.5 432025.44
J-22 238081.22 432149.07
J-23 238366.38 432600.59
J-24 238328.38 432615.85
J-25 238292.38 432617.22
J-26 238307.26 432285.21
J-27 238403.32 432585.09
J-28 238401.55 432564.4
J-29 237968.9 431864.88
J-30 237919.1 432016.84
J-31 238368.87 432234.86
J-32 237866.45 432003.88
J-33 237902.15 431359.07
J-34 237849.42 432172.21
J-35 237688.16 432314.51
J-36 238041.47 431394.39
J-37 237891.09 431659.1
J-38 238273.65 432034.9
J-39 238541.65 431638.2
J-40 238550.34 431467.14
J-41 238225.5 431437.98
J-42 238176.89 431615.44
J-43 238379.05 430452.77
J-44 238285.81 430536.54
J-45 238374.5 431464.07
J-46 238360.28 431635.22
J-47 238359.14 431649.02
J-48 238353.98 432254.05
J-49 238337.07 430619.16
J-50 238136.68 432217.17
J-51 238138.64 432151.99
J-52 238136.91 432191.76
J-53 238311.87 432217.96
J-54 238326.86 432037.58
J-55 238314.53 432186.02
J-56 238328.38 432703.57
J-57 238136.04 431418.37
J-58 237988.04 431869.57
J-59 238078.8 431591.37
J-60 238184.05 431427.68
J-61 238167.76 430560.57
J-62 238275.6 430553.66
J-63 238293.07 432703.57
J-64 238298.02 432738.47
J-65 238372.11 432837.72
J-66 238233.3 433005.42
J-67 237899.15 432168.41
J-68 237924.26 432232.88
J-69 237870.43 432244.37
J-70 238446.55 432564.42
J-71 238451.99 432611.04
J-72 238355.76 432827.28
J-73 238315.32 432799.54
J-74 238354.21 432826.29
J-75 238322.07 432295.17
J-76 238392.9 432463.53
J-77 238362.84 432322.67
J-78 238337.21 432275.66
J-79 238378.02 432303.11
Reservoir 238919.51 429924.68
J-80 238456.81 430350.59
J-81 238453.99 430348.52
J-82 238676.11 430074.8
J-83 238922.4 429931.05
J-84 238673.72 430072.56
J-85 238920.95 429927.87
J-86 238366.38 432703.57
J-87 238400.25 432703.57
J-88 238395.32 432703.57

[END]
