[TITLE]
±¸¹Ì°ü¸Áµµ TEST v3

[JUNCTIONS]
;ID              Elev            Demand
A084               10.00              0
A092               10.00              0
A094               10.00              0
A095               10.00              0
A096               10.00              0
A097               10.00              0
A098               10.00              0
A099               10.00              0
A100               10.00              0
A101               10.00              0
A102               10.00              0
A103               10.00              0
A104               10.00              0
A105               10.00              0
A106               10.00              0
A107               10.00              0
A108               10.00              0
A109               10.00              0
A111               10.00              0
A112               10.00              0
A113               10.00              0
A114               10.00              0
A115               10.00              0
A116               10.00              0
A117               10.00              0
A118               10.00              0
A119               10.00              0
A120               10.00              0
A121               10.00              0
A122               10.00              0
A123               10.00              0
A124               10.00              0
A125               10.00              0
A126               10.00              0
A127               10.00              0
A128               10.00              0
A129               10.00              0
A130               10.00              0
A133               10.00              0
A134               10.00              0
A134A               10.00              0
A135               10.00              0
A135A               10.00              0
A136               10.00              0
A137               10.00              0
A138               10.00              0
A139               10.00              0
A142               10.00              0
A142A               10.00              0
A143               10.00              0
A144               10.00              0
A145               10.00              0
A145A               10.00              0
A146               10.00              0
A147               10.00              0
A148               10.00              0
A154               10.00              0
A156               10.00              0
A157               10.00              0
A158               10.00              0
A159               10.00              0
A160               10.00              0
A160A               10.00              0
A162               10.00              0
A162A               10.00              0
A163               10.00              0
A165               10.00              0
A165A               10.00              0
A166A               10.00              0
A167               10.00              0
A167A               10.00              0
A168               10.00              0
A169               10.00              0
A169A               10.00              0
A170               10.00              0
A170A               10.00              0
A171               10.00              0
A172               10.00              0
A172A               10.00              0
A173               10.00              0
A174               10.00              0
A174A               10.00              0
A175               10.00              0
A175-1               10.00              0
A176               10.00              0
A176-2               10.00              0
A176A               10.00              0
B001               10.00              0
B002               10.00              0
B003               10.00              0
B004               10.00              0
B005               10.00              0
B006               10.00              0
B007               10.00              0
B008               10.00              0
B009               10.00              0
B010               10.00              0
B011               10.00              0
B012               10.00              0
B013               10.00              0
B014               10.00              0
B015               10.00              0
B016               10.00              0
B017               10.00              0
B018               10.00              0
B019               10.00              0
B020               10.00              0
B021               10.00              0
B022               10.00              0
B023               10.00              0
B024               10.00              0
B025               10.00              0
B026               10.00              0
B027               10.00              0
B028               10.00              0
B029               10.00              0
B030               10.00              0
B031               10.00              0
B032               10.00              0
B053               10.00              0
B054               10.00              0
B055               10.00              0
B058               10.00              0
B059               10.00              0
B060               10.00              0
B061               10.00              0
B062               10.00              0
B063               10.00              0
B064               10.00              0
B065               10.00              0
B101               10.00              0
B102               10.00              0
B103               10.00              0
B104               10.00              0
B105               10.00              0
B106               10.00              0
B107               10.00              0
B108               10.00              0
B109               10.00              0
B110               10.00              0
B111               10.00              0
B112               10.00              0
B113               10.00              0
B114               10.00              0
B115               10.00              0
B116               10.00              0
B117               10.00              0
B118               10.00              0
B201               10.00              0
B202               10.00              0
B203               10.00              0
B204               10.00              0
B205               10.00              0
B206               10.00              0
B207               10.00              0
B208               10.00              0
B209               10.00              0
B210               10.00              0
B301               10.00              0
B302               10.00              0
B303               10.00              0
B304               10.00              0
B305               10.00              0
B306               10.00              0
B307               10.00              0
B308               10.00              0
B309               10.00              0
B310               10.00              0
B311               10.00              0
B312               10.00              0
B313               10.00              0
B314               10.00              0
B315               10.00              0
B316               10.00              0
B317               10.00              0
B318               10.00              0
B319               10.00              0
B320               10.00              0
B321               10.00              0
B322               10.00              0
B323               10.00              0
B324               10.00              0
B325               10.00              0
B326               10.00              0
B327               10.00              0
B328               10.00              0
B329               10.00              0
B330               10.00              0
B331               10.00              0
B332               10.00              0
B333               10.00              0
B334               10.00              0
B335               10.00              0
B336               10.00              0
B337               10.00              0
B338               10.00              0
B339               10.00              0
B340               10.00              0
B341               10.00              0
B342               10.00              0
B343               10.00              0
B344               10.00              0
B401               10.00              0
B402               10.00              0
B403               10.00              0
B404               10.00              0
B405               10.00              0
B406               10.00              0
B407               10.00              0
B408               10.00              0
B409               10.00              0
B410               10.00              0
B411               10.00              0
B412               10.00              0

[RESERVOIRS]
;ID              Head
1               100.00

[COORDINATES]
;Node            X-Coord         Y-Coord
B003               147180.0979973121         299527.4066990268
B004               147311.2795228906         299699.4833278789
B005               147459.5386247666         299910.6527559548
B007               147627.0253636023         300143.4044341423
B008               147917.0391814763         300548.9975977625
B009               147890.6591270515         300567.9802932551
B010               147624.3108021674         300761.7965781957
B030               147572.0706302896         300135.5171624617
B115               147311.323573316         300326.8462931669
B011               147331.1690407584         300972.7370373304
B116               147018.1829189804         300537.7882907732
B029               147430.6742352204         299933.8873641246
B028               147276.3768026178         299724.5990851922
B027               147258.5621387206         299699.8425024303
B026               147151.599507544         299546.064407921
B108               147012.4350993379         299646.2061573999
B109               146737.7611726081         299843.8596229201
B110               146593.5244563332         299947.6513703436
B102               146851.2544011315         299422.2174953599
B024               146933.4913907872         299248.1013990103
B104               146432.343759501         299723.6627102271
B023               146559.9637913101         298788.3543497033
B022               146489.8555899544         298919.9908821296
B021               146282.0561545128         299210.5781045765
B020               146173.6951850631         299371.5780107717
B210               146580.8341010882         298751.3248228907
B209               146637.0915641048         298650.0117099092
B208               146816.5488724747         298439.7641553226
B205               147051.8951719454         298766.8188419015
B204               146873.5518614471         298895.1534595771
B203               146778.1781783663         298963.7837049184
B053               147547.5733836829         299525.7525815089
B054               147759.8422217704         299373.0053864212
B055               147699.4102623604         299738.0427762866
B059               147961.3969875492         299549.5189317763
B060               148107.2727650691         299752.2387380544
B061               148312.4164895826         299604.6187255954
B062               148127.1317298044         299779.8362292382
B063               148322.9181393864         299638.9496762114
B064               148421.8692449656         300189.4253535756
B065               148521.4377630704         300117.7773262672
B201               146965.3502593958         299225.1759766267
B117               147362.1391592304         300397.4634031956
B118               147419.379704281         300477.0091133395
B032               147686.7491719978         300284.6118842749
B031               147627.0735541875         300206.8184357141
B006               147603.6618329475         300110.937045926
B058               147845.2849760364         299940.7633481678
B111               146704.6741174721         300102.1131896663
B114               147165.7398402278         300124.5323315412
B113               146718.9842537294         300121.999617195
B105               147023.5988892502         299481.1820753517
B106               146938.0060817587         299542.774069997
B107               147098.0279068297         299584.6141627546
B101               146936.8472083409         299360.6255003226
B025               146987.9837361223         299323.8280068413
B112               147012.1249081167         299911.0576196602
B103               146576.5804753064         299619.8709621387
B202               146785.1872008685         298973.5239628397
B012               147142.6503402595         301108.3923469597
B013               146834.4061696522         300666.3367867917
B015               146538.7120256615         300255.4182600553
B016               146520.8973606283         300230.6616794626
B018               146250.3192680147         299854.6462816486
B019               146044.4376400811         299574.6856658339
B014               146571.2748869575         300300.6700286884
B302               146755.2416187342         300724.5350373303
B303               146691.1180362906         300770.6779259887
B304               146553.8943070301         300875.0112311821
B305               146500.6486631348         300913.2923094977
B306               146326.3116308952         300999.3062523795
B307               145973.2076393104         300961.1056350679
B308               145706.7390249304         300539.4249882979
B309               145724.420777758         300346.7881357181
B310               145733.350934756         299892.6327902429
B311               145938.8485780174         299725.2684588179
B315               146490.7761328632         300492.2679490706
B314               146427.4026718708         300404.1994845593
B313               146344.4622897414         300288.9393743218
B312               146106.4470529465         299958.1757375162
B318               146491.5262543324         300358.0565959082
B317               146408.5858722057         300242.7964856686
B316               146170.5706354169         299912.0328488555
B301               146799.0126208744         301403.6897590582
B329               145989.0813666066         300925.288076698
B328               146009.4542763511         300879.3185403488
B327               146028.3505547241         300832.3422318242
B326               146031.8335695811         300771.3920233625
B325               146015.0978697174         300721.8351155457
B324               145986.7870710667         300680.6075691579
B323               145947.0691415971         300625.4125867895
B322               145917.5877714811         300585.0273755725
B321               145846.0964529161         300537.464248591
B320               145795.3719947926         300531.2237161478
B319               145745.5729056684         300535.7683556002
B336               145840.725519878         300785.7124562214
B333               145803.1364422908         300728.9855666887
B335               145881.3100657372         300756.5080963173
B334               145921.8946115965         300727.3037364134
B332               145843.991345516         300699.5866594847
B331               145884.9252952394         300670.1308709646
B338               145987.9769499573         300802.9509450297
B337               145952.0752962018         300767.1857257363
B330               145864.5333661737         300623.2049605198
B401               145664.9169152311         300333.3609117172
B402               145546.7519046509         300306.696624749
B403               145505.7110786952         300295.7128649066
B412               145475.3324346126         300170.3775025927
B411               145487.3713012909         300166.5849048944
B410               145516.8107785666         300205.3154367168
B409               145523.504683984         300237.891920896
B408               145678.5642576585         300272.8815760342
B405               145672.6210601498         300299.2193512511
B406               145653.9109939187         300382.1345695263
B407               145538.2096912941         300353.9137531506
B404               145500.8373633218         300261.7226264878
B017               146488.2649937889         300185.4599381162
B339               146759.1289666766         301364.3273778332
B340               146689.3939942534         301291.2051179403
B341               146794.4323238698         301332.9869081267
B342               146710.0957995637         301269.7983975826
B207               146993.2393035841         298321.2564363493
B206               147220.3725572148         298637.1809917845
B344               146073.6502449872         299777.3450815831
B343               146009.5266625122         299823.487970244
B001               147049.7508066203         299346.3174020119
1               147156.5351419742         299058.0776642133
A145A               148432.0970363727         299518.4974282337
A135A               149546.4403527853         299380.2006812122
A134A               149336.3957292095         299111.7448569093
A160A               148693.3184735998         298539.3160443528
A162A               148788.480829661         298118.6605462515
A170A               149459.5256005662         297555.0134236092
A169A               148966.7806174143         297644.5846212638
A165A               149244.5880750788         298862.1479779498
A176-2               148532.8668703887         299045.8934345569
A176A               148241.8756765748         299255.2886950705
A105               149666.5279644111         297726.1376533224
A106               149671.7243989803         297768.2630063774
A174A               149068.4289319875         299060.5973752834
A166A               149046.6955063253         298544.7428163015
A176               148438.8288310136         298915.2111962224
A099               149562.9967623352         297681.8349841904
A142A               148552.3163715323         300095.5575973014
A104               149657.3605671193         297683.9243757094
A097               149558.9215106185         297765.7653389848
A098               149560.9591364768         297723.8001615876
A103               149643.9471213056         297641.6170826229
A092               149722.5586993744         297816.4000928346
A175               148147.8376371963         299124.6064567325
A084               149568.8670654034         297560.9353064511
A102               149621.5638949928         297590.609098429
A116               149626.4549807085         298106.9338435149
A101               149567.4843907134         297589.4116768346
A115               149585.3493971964         297850.3710904379
A100               149565.0343881935         297639.8698067931
A095               149640.6499534252         297814.5864796647
A122               149536.5692134947         298226.1138912893
A109               149655.6436598527         298064.2565745429
A129               149526.7555119275         298587.1927174261
A094               149703.7837442849         297815.9843801361
A112               149575.4521335759         298054.2065599761
A111               149628.7458944037         298059.7521692017
A107               149638.8549020738         297851.5558026098
A114               149551.8459502171         297849.6292613209
A165               149257.4593658678         298843.081133762
A113               149541.9946053676         298052.5190276211
A121               149647.2843063383         298139.5477042331
A127               149496.0446735082         298495.2366483709
A108               149669.4365984306         297852.2329386912
A120               149635.0785694513         298191.5244743592
A128               149545.6159816704         298506.877509146
A117               149542.7116681202         298099.6092157818
A148               148719.5884839619         299122.2011690492
A096               149556.6413102532         297812.7263708341
A154               148777.997203772         299203.3702607665
A146               148691.1545005418         299265.8616723734
A123               149669.540606355         298250.3604600715
A168               148990.8276632409         297835.9942795774
A134               149203.9131986915         299217.2030139636
A119               149538.8328333599         298179.4943370585
A173               149387.0509883915         298556.4896726469
A124               149656.8304290243         298304.4853336041
A147               148632.7457807322         299184.6925806559
A130               149587.1136078471         298601.3666462025
A118               149541.3099153859         298128.4785010448
A170               149471.1467334775         297315.6746351967
A125               149596.3850244002         298290.6831992148
A126               149516.7848365464         298283.0460314928
A171               149447.1300432612         297810.3015861081
A137               149721.6212933693         299254.143077329
A163               148241.8137676148         298186.6257941121
A169               148953.0491917283         297469.1966333636
A167               149008.6650584524         298092.0424619426
A143               149037.1479906739         299746.6799033795
A159               148978.6255252797         298935.7998967682
A144               149699.5852156709         298122.8886470267
A158               149037.0342451368         299016.9689885508
A157               148950.191540378         299079.460400399
A133               149453.2344683979         298969.5733957565
A139               149189.3808805108         299958.2340247269
A156               148891.7828214569         298998.2913088016
A172               149433.3405191199         298094.2986822558
A135               149398.0453800859         299486.9835003044
A142               148788.3637850438         299925.7013239813
A138               149701.7347909757         299268.4531091909
A162               148488.9151727045         298157.8388033082
A145               148722.5491874393         299309.4900591713
A174               149080.643188036         299045.8978589553
A160               148784.7085755636         298666.3185123399
A136               149550.2769071352         299698.5357278062
A172A               149422.6952030613         298313.5403919231
A167A               149023.9176649106         298311.0118844654
B002               147110.1707878194         299430.2814969618
A175-1               148056.0433877571         299190.6609669138

[PIPES]
;ID              Node1           Node2           Length          Diameter        Roughness       MinorLoss       Status
#001               B001              1              612.7              600              110              0              Open
#102               A165A              A133              235.23              200              110              0              Open
#103               A133              A138              390.78              200              110              0              Open
#104               A136              A137              561.16              100              110              0              Open
#105               A139              A136              444.62              100              110              0              Open
#106               A142              A139              477.32              100              110              0              Open
#107               A142              A143              306.5              200              110              0              Open
#108               A143              A135              444.62              200              110              0              Open
#109               A135              A135A              182.82              200              110              0              Open
#109A               A135A              A138              191.32              200              110              0              Open
#109B               A134A              A135A              341.53              200              110              0              Open
#110               A138              A137              24.5              200              110              0              Open
#111               A143              A139              260.63              100              110              0              Open
#112               A136              A135              260.63              100              110              0              Open
#113               A134              A135              332.37              100              110              0              Open
#114               A134              A174              211.05              300              110              0              Open
#116               A158              A174A              53.75              100              110              0              Open
#117               A159              A158              100              100              110              0              Open
#118               A159              A160              332              100              110              0              Open
#119               A160              A160A              156.47              200              110              0              Open
#119A               A160A              A162              435.86              200              110              0              Open
#121               A163              A162              248.77              100              110              0              Open
#123               A162A              A162              302.12              200              110              0              Open
#123B               A167              A162A              221.84              200              110              0              Open
#124               A167              A172              425.23              300              110              0              Open
#126               A172              A117              109.5              150              110              0              Open
#127               A117              A116              84.11              150              110              0              Open
#128               A116              A144              74.9              150              110              0              Open
#129               A144              A092              308.6              200              110              0              Open
#130               A095              A094              63.15              150              110              0              Open
#1301               A094              A092              18.78              150              110              0              Open
#132               A096              A095              84.03              150              110              0              Open
#133               A171              A096              109.54              150              110              0              Open
#135               A168              A171              457.69              300              110              0              Open
#137               A094              A084              331.38              150              110              0              Open
#140               A097              A096              47.02              100              110              0              Open
#141               A098              A097              42.01              100              110              0              Open
#142               A099              A098              42.01              100              110              0              Open
#143               A100              A099              42.01              100              110              0              Open
#144               A101              A100              50.52              100              110              0              Open
#145               A084              A101              28.51              100              110              0              Open
#146               A102              A103              55.74              100              110              0              Open
#147               A103              A104              44.4              100              110              0              Open
#148               A104              A105              43.21              100              110              0              Open
#149               A105              A106              42.46              100              110              0              Open
#150               A106              A097              112.83              100              110              0              Open
#151               A098              A105              105.59              100              110              0              Open
#152               A099              A104              94.39              100              110              0              Open
#153               A100              A103              78.93              100              110              0              Open
#154               A101              A102              54.09              100              110              0              Open
#155               A095              A107              37.01              100              110              0              Open
#156               A111              A107              208.44              100              110              0              Open
#157               A112              A111              53.6              100              110              0              Open
#158               A113              A112              33.5              100              110              0              Open
#159               A113              A114              203.13              100              110              0              Open
#160               A114              A115              33.51              100              110              0              Open
#162               A107              A108              30.59              100              110              0              Open
#1620               A115              A107              53.52              100              110              0              Open