[TITLE]
남청주 현도 관망도

[JUNCTIONS]
;ID              Elev            Demand
J01               75.96              0
J02               78.58              0
J03               68.93              0
J04               52.89              0
J05               FH              0
J06               42.99              0
J07               FH              0
J08               45.43              0
J09               41.45              0
J10               52.87              0
J11               44.98              0
J12               47.09              0
J13               49.10              0
J14               55.05              0
J15               50.64              0
J16               48.16              0
J17               51.51              0
J18               53.50              0
J19               49.99              0
J20               51.03              0
J21               52.32              0
J22               52.65              0
J23               41.63              0
J24               50.79              0
J25               45.84              0
J26               45.20              0
J27               48.63              0
J28               51.35              0
J29               50.68              0
J30               42.89              0
J31               42.82              0
J32               53.07              0
J33               49.89              0
J34               53.80              0
J35               50.76              0
J36               64.98              0
J37               45.75              0
J38               42.62              0
J39               64.26              0
J40               62.55              0
J41               60.88              0
J42               60.88              0
J43               82.72              0
J44               82.72              0
J45               57.56              0
J46               59.76              0
J47               69.83              0
J48               65.73              0
J49               60.83              0
J50               52.50              0
J51               49.04              0
J52               71.85              0
J53               62.60              0
J54               61.63              0
J55               53.31              0
J56               48.75              0
J57               49.47              0
J58               48.24              0
J59               48.98              0
J60               52.11              0
J61               58.57              0
J62               52.26              0
J63               47.82              0
J64               63.74              0
J65               53.42              0
J66               60.57              0
J67               64.45              0
J68               49.20              0
J69               49.00              0
J70               49.53              0
J71               47.11              0
J72               39.71              0
J73               38.77              0
J74               46.33              0
J75               44.24              0
J76               43.57              0
J77               41.63              0
J78               41.49              0
J79               40.18              0
J80               43.13              0
J81               40.18              0
J82               51.63              0
J83               45.79              0
J84               53.42              0
J85               52.29              0
J86               52.84              0
J87               88.00              0
J89               88.00              0
Junction               FH              0

[RESERVOIRS]
;ID              Head
1               88.00

[COORDINATES]
;Node            X-Coord         Y-Coord
J89               238920.9549779178         429927.8662639187
1               238919.5085916825         429924.6791073712
J87               238922.4013641531         429931.0534204662
J86               238378.0212490427         432303.108992592
J85               238337.2055339751         432275.6646591932
J84               238362.8370014278         432322.6718810301
J83               238392.8959218079         432463.5301248981
J82               238322.0689475235         432295.1661425467
J81               238354.2075581898         432826.2903286454
J80               238315.3153212521         432799.5437897771
J79               238355.7595946312         432827.2813166527
J78               238451.9865003035         432611.0355743611
J77               238446.5480324426         432564.4169553275
J76               237870.4255027843         432244.3722430303
J75               237924.264273972         432232.8781666571
J74               237899.1547535342         432168.4131101227
J73               238233.3035853691         433005.4158152297
J72               238372.1111505326         432837.7219193131
J71               238298.0161179681         432738.4688591534
J70               238293.0724611779         432703.5658629514
J69               238275.6013998773         430553.6574198399
J68               238167.7646748309         430560.5717921269
J67               238184.0470573846         431427.6793263949
J66               238078.7995986421         431591.3658881144
J65               237988.0381643134         431869.572785246
J64               238136.0404780266         431418.3737666898
J63               238328.3841776804         432703.5658629514
J62               238314.5262821019         432186.0203654281
J61               238326.8578402987         432037.5774925302
J60               238311.8727768975         432217.9623089756
J59               238136.9115598023         432191.7640863964
J58               238138.6375882426         432151.9910101404
J57               238136.6804377313         432217.1679066545
J56               238337.0659251015         430619.1587025423
J55               238353.9799955162         432254.0529910963
J54               238359.1366812853         431649.0163866759
J53               238360.2828725251         431635.2189477947
J52               238374.5009682495         431464.066613046
J51               238285.8130113669         430536.5398318113
J50               238379.0452870341         430452.7667427938
J49               238176.8902642683         431615.4380782681
J48               238225.4969293146         431437.9843322587
J47               238550.3433947056         431467.1405042042
J46               238541.6533840054         431638.2025672949
J45               238273.6488401205         432034.8985785358
J44               238673.7174580259         430072.5600488417
J43               238676.1146090762         430074.8035038012
J42               238453.9899385982         430348.5202008946
J41               238456.8141335114         430350.5875477672
J40               237891.0882076427         431659.1046700067
J39               238041.4722523602         431394.3947994894
J38               237688.1574153504         432314.5074305176
J37               237849.4203764268         432172.2089525578
J36               237902.154870349         431359.0691189012
J35               237866.4535940092         432003.8794842755
J34               238368.8734290249         432234.8647780485
J33               237919.0966198478         432016.8365339674
J32               237968.9032885452         431864.8777247353
J31               238401.5499703643         432564.4031868728
J30               238403.324743813         432585.09024807
J29               238307.2583160883         432285.2075296382
J28               238292.3841776804         432617.2202783848
J27               238328.3841776805         432615.8498830508
J26               238366.3841776805         432600.5879018129
J25               238081.2199282884         432149.0741735818
J24               238087.5004754758         432025.4421786108
J23               238447.1244172539         432703.5658629512
J22               238421.6888970395         432330.0321273911
J21               238198.5001708884         432238.4438492018
J20               238207.0553157506         432283.0176681199
J19               238141.9490324258         432244.618217509
J18               238161.6893716259         432568.9965129497
J17               238124.0887904446         432575.9852066616
J16               238160.383377616         432340.6609018417
J15               238202.0134092372         432155.2105232963
J14               238210.2805243917         432031.6794466501
J13               238151.3668802849         432293.6868717337
J12               238102.9929058953         432252.0817212416
J11               238063.3780362213         432259.6714318729
J10               238144.9181354299         432028.3590151691
J09               238331.3231587512         432868.1785675597
J08               238366.3841776804         432703.5658629514
J07               238395.3178819684         432703.5658629513
J06               238404.4172785822         432611.0355743612
J05               238400.245576388         432703.5658629513
J04               238263.3951569984         432158.3287368571
J03               238343.6552164035         430258.1260311694
J02               238565.7129625301         429987.0833322498
J01               238486.3330747578         429793.603986921
Junction               238395.3178819684         432703.5658629513

[PIPES]
;ID              Node1           Node2           Length          Diameter        Roughness       MinorLoss       Status
Line               Junction              Junction              4.93              Dia              110              0              Open
P001               J62              J59              178              200              110              0              Open
P002               J50              J41              129.47              400              110              0              Open
P003               J43              J41              352.8              400              110              0              Open
P003               J43              J41              352.37              400              110              0              Open
P005               J43              J02              137.74              100              110              0              Open
P006               J02              J01              226.68              80              110              0              Open
P007               J41              J03              142.64              100              110              0              Open
P008               J03              J02              350.39              100              110              0              Open
P009               J16              J13              47.83              100              110              0              Open
P010               J13              J19              49.96              100              110              0              Open
P011               J19              J57              27.95              150              110              0              Open
P012               J17              J11              322.09              100              110              0              Open
P013               J76              J37              75.2              150              110              0              Open
P014               J37              J35              170.91              150              110              0              Open
P015               J35              J33              54.21              100              110              0              Open
P016               J46              J47              171.28              100              110              0              Open
P017               J24              J10              57.49              80              110              0              Open
P018               J10              J14              65.45              80              110              0              Open
P019               J14              J45              63.45              80              110              0              Open
P020               J25              J58              57.49              80              110              0              Open
P021               J58              J15              63.46              80              110              0              Open
P022               J15              J04              61.46              80              110              0              Open
P023               J45              J04              123.86              80              110              0              Open
P024               J22              J77              241.22              100              110              0              Open
P025               J70              J63              35.31              100              110              0              Open
P026               J63              J08              38              100              110              0              Open
P027               J08              Junction              28.93              Dia              110              0              Open
P028               Junction              J23              46.88              80              110              0              Open
P029               J78              J06              47.57              100              110              0              Open
P030               J30              J06              25.98              100              110              0              Open
P031               J06              Junction              92.64              100              110              0              Open
P032               Junction              J80              124.95              80              110              0              Open
P033               J63              J27              87.72              80              110              0              Open
P034               J08              J26              102.98              80              110              0              Open
P035               J09              J79              47.64              80              110              0              Open
P036               J77              J31              45              100              110              0              Open
P037               J58              J10              123.79              80              110              0              Open
P038               J18              J12              322.3              100              110              0              Open
P039               J19              J12              39.66              100              110              0              Open
P040               J12              J11              40.34              100              110              0              Open
P041               J13              J20              56.7              80              110              0              Open
P042               J20              J29              106.03              80              110              0              Open
P043               J15              J14              123.81              80              110              0              Open
P044               J16              J29              158.62              100              110              0              Open
P045               J67              J48              42.71              300              110              0              Open
P046               J16              J18              251.7              100              110              0              Open
P047               J18              J17              38.24              100              110              0              Open
P048               J19              J21              56.92              80              110              0              Open
P049               J21              J20              45.39              80              110              0              Open
P050               J83              J22              162.48              80              110              0              Open
P051               J33              J74              153.19              150              110              0              Open
P052               J23              J79              155.11              80              110              0              Open
P053               J78              J23              92.66              80              110              0              Open
P054               J25              J24              123.79              80              110              0              Open
P055               J30              J26              40.06              100              110              0              Open
P056               J26              J27              40.98              100              110              0              Open
P057               J27              J28              36.11              100              110              0              Open
P058               J79              J79              1.84              80              110              0              Open
P058               J72              J79              19.4              80              110              0              Open
P059               J70              J28              86.37              100              110              0              Open
P060               J36              J39              143.73              200              110              0              Open
P061               J39              J64              97.56              200              110              0              Open
P062               J64              J67              48.9              300              110              0              Open
P063               J29              J82              17.85              100              110              0              Open
P064               J83              J31              101.24              100              110              0              Open
P065               J31              J30              20.76              100              110              0              Open
P066               J32              J65              19.7              150              110              0              Open
P067               J33              J32              159.98              150              110              0              Open
P068               J85              J55              27.36              150              110              0              Open
P069               J55              J34              24.29              80              110              0              Open
P070               J35              J40              345.88              200              110              0              Open
P071               J40              J36              300.24              200              110              0              Open
P072               J66              J49              101              200              110              0              Open
P073               J37              J74              49.88              100              110              0              Open
P074               J49              J48              183.99              200              110              0              Open
P075               J76              J38              195.51              80              110              0              Open
P076               J87              J43              288.86              400              110              0              Open
P076               J87              J43              287.53              400              110              0              Open
P078               J40              J39              376.32              150              110              0              Open
P079               J41              J41              3.5              150              110              0              Open
P080               J43              J43              3.28              150              110              0              Open
P081               J45              J61              53.28              100              110              0              Open
P082               J53              J46              181.4              100              110              0              Open
P083               J47              J52              175.88              100              110              0              Open
P084               J52              J48              151.27              150              110              0              Open
P085               J49              J54              189.96              200              110              0              Open
P086               J53              J54              13.84              100              110              0              Open
P087               J85              J82              24.69              150              110              0              Open
P088               J69              J51              19.93              400              110              0              Open
P089               J51              J50              126.71              400              110              0              Open
P090               J53              J52              171.74              100              110              0              Open
P091               J61              J54              389.9              200              110              0              Open
P092               J57              J60              177.33              200              110              0              Open
P093               J60              J55              55.64              200              110              0              Open
P094               J69              J56              92.34              80              110              0              Open
P095               J57              J59              25.4              100              110              0              Open
P096               J59              J58              39.82              100              110              0              Open
P097               J60              J62              32.05              200              110              0              Open
P098               J62              J61              148.95              200              110              0              Open
P099               J71              J63              65.27              100              110              0              Open
P100               J64              J66              182.22              150              110              0              Open
P101               J66              J65              292.64              150              110              0              Open
P102               J68              J67              897.2              300              110              0              Open
P103               J69              J68              112.08              300              110              0              Open
P104               J80              J71              64.93              100              110              0              Open
P105               J71              J70              35.27              100              110              0              Open
P106               J73              J72              228.45              80              110              0              Open
P107               J75              J74              72.92              150              110              0              Open
P108               J76              J75              55.07              150              110              0              Open
P109               J78              J77              88.78              100              110              0              Open
P111               J79              J80              47.29              100              110              0              Open
P112               J82              J84              49.18              100              110              0              Open
P113               J84              J83              149.13              100              110              0              Open
P114               J84              J86              24.76              100              110              0              Open
P115               J86              J85              49.18              100              110              0              Open
P116               J87              J87              3.5              400              110              0              Open
P116               J87              J87              3.5              400              110              0              Open

[VERTICES]
;Link            X-Coord         Y-Coord
P001               238224.7850860851         432184.9975623691
P002               238395.2938967305         430434.8044809962
P002               238437.7825382628         430371.6148520214
P002               238449.8220208785         430354.2743277621
P003               238651.1170641504         430098.6348186222
P003               238470.0784807192         430327.3869472613
P003               238653.8615564488         430100.8068596033
P003               238472.8229730176         430329.5589882425
P006               238521.6797361106         429952.2346382395
P006               238483.432948114         429869.1626571814
P012               238082.0950155035         432357.1902066785
P013               237852.4011592672         432185.797467418
P014               237847.2425229529         432162.2807572222
P014               237845.8731499493         432156.0381872649
P014               237848.3909358163         432092.6190528449
P014               237858.038122521         432047.9294664731
P014               237865.2451165972         432011.2550396348
P024               238446.1389228782         432386.1361706949
P030               238404.4172785822         432601.3146653259
P031               238404.4172785822         432623.3372765538
P042               238274.884588152         432270.0224328942
P042               238290.553795452         432273.2204826695
P044               238212.1122513843         432331.080086601
P044               238240.6995050725         432321.019761493
P046               238196.2973795955         432527.7792086189
P046               238169.1198941487         432567.6154266899
P050               238416.9835203318         432463.5301248981
P050               238407.6067967587         432354.2334400045
P050               238410.4960486122         432344.4526275467
P051               237911.365653574         432049.7070630908
P051               237906.1172892676         432081.7675526289
P051               237905.0796303685         432091.1138232837
P052               238436.4636600553         432727.6088607638
P056               238335.8330707549         432613.4049895341
P057               238316.8767557558         432617.2202783848
P059               238292.3841776805         432693.0303290452
P067               237935.429048769         431959.8429290396
P067               237937.2600031427         431954.1093078309
P070               237878.72943502         431898.4839914975
P070               237880.8780509812         431864.1922887818
P070               237882.5471445565         431837.5537169194
P070               237887.3099220127         431761.5402498428
P071               237895.2289380781         431546.8426113222
P075               237784.5113972141         432273.5690150563
P076               238796.030387522         429984.5591829215
P076               238797.4767737573         429987.746339469
P078               237971.5679549956         431679.2920958678
P078               237994.6700871087         431585.1385856075
P083               238377.2229422334         431464.404703165
P085               238239.8719514161         431630.8916843314
P085               238262.3441730065         431633.7886784749
P085               238344.6076477859         431635.0886779642
P089               238291.5870425191         430526.8609004666
P089               238318.2148897899         430498.0415620503
P089               238364.8107078825         430464.9946353128
P089               238364.7919038892         430464.9681218806
P091               238343.1142961283         431841.8881102178
P092               238224.5000868342         432209.995935447
P092               238264.5872735301         432210.452820169
P092               238286.6326797619         432210.7040777435
P092               238286.6048550857         432210.703760618
P092               238293.7650854457         432213.3099219331
P092               238307.7399179926         432217.5921269447
P093               238316.5348540568         432220.5358252623
P093               238330.167143845         432232.9343425884
P093               238345.1859778889         432246.5939168056
P093               238346.2062773338         432247.5218753908
P093               238349.9543997454         432250.8010875112
P094               238330.6419913817         430605.806210827
P096               238136.9757995053         432184.7031689192
P099               238328.3826613641         432738.4688591534
P100               238126.3620769772         431447.6299762517
P101               238026.4753107683         431749.492198882
P101               237993.6690846282         431851.4281817598
P102               238163.6508752981         430570.7967729381
P102               238162.0744722348         430574.7149733619
P102               238162.1603347466         430574.9152324153
P102               238162.5607170464         430575.8539736757
P102               238162.9593964861         430576.7937313356
P102               238163.3563471163         430577.7345122405
P102               238163.7473834302         430578.6664104204
P102               238176.0798950615         430611.2092264684
P102               238179.3030488797         430612.7614350775
P102               238183.3718361376         430625.1862890685
P102               238181.608050547         430628.4402327077
P102               238202.0244306642         430739.2309357187
P102               238202.0966089894         430740.2497027191
P102               238202.1667544082         430741.268387231
P102               238202.2348953209         430742.2869384425
P102               238202.3010579749         430743.3053507572