[TITLE]
남청주 현도 관망도

[JUNCTIONS]
;ID              Elev            Demand
J01               75.96              0
J02               78.58              0
J03               68.93              0
J04               52.89              0
J05               FH              0
J06               42.99              0
J07               FH              0
J08               45.43              0
J09               41.45              0
J10               52.87              0
J11               44.98              0
J12               47.09              0
J13               49.10              0
J14               55.05              0
J15               50.64              0
J16               48.16              0
J17               51.51              0
J18               53.50              0
J19               49.99              0
J20               51.03              0
J21               52.32              0
J22               52.65              0
J23               41.63              0
J24               50.79              0
J25               45.84              0
J26               45.20              0
J27               48.63              0
J28               51.35              0
J29               50.68              0
J30               42.89              0
J31               42.82              0
J32               53.07              0
J33               49.89              0
J34               53.80              0
J35               50.76              0
J36               64.98              0
J37               45.75              0
J38               42.62              0
J39               64.26              0
J40               62.55              0
J41               60.88              0
J42               60.88              0
J43               82.72              0
J44               82.72              0
J45               57.56              0
J46               59.76              0
J47               69.83              0
J48               65.73              0
J49               60.83              0
J50               52.50              0
J51               49.04              0
J52               71.85              0
J53               62.60              0
J54               61.63              0
J55               53.31              0
J56               48.75              0
J57               49.47              0
J58               48.24              0
J59               48.98              0
J60               52.11              0
J61               58.57              0
J62               52.26              0
J63               47.82              0
J64               63.74              0
J65               53.42              0
J66               60.57              0
J67               64.45              0
J68               49.20              0
J69               49.00              0
J70               49.53              0
J71               47.11              0
J72               39.71              0
J73               38.77              0
J74               46.33              0
J75               44.24              0
J76               43.57              0
J77               41.63              0
J78               41.49              0
J79               40.18              0
J80               43.13              0
J81               40.18              0
J82               51.63              0
J83               45.79              0
J84               53.42              0
J85               52.29              0
J86               52.84              0
J87               88.00              0
J89               88.00              0
Junction               FH              0

[RESERVOIRS]
;ID              Head
1               88.00

[COORDINATES]
;Node            X-Coord         Y-Coord
J89               238920.9549779178         429927.8662639187
1               238919.5085916825         429924.6791073712
J87               238922.4013641531         429931.0534204662
J86               238378.0212490427         432303.108992592
J85               238337.2055339751         432275.6646591932
J84               238362.8370014278         432322.6718810301
J83               238392.8959218079         432463.5301248981
J82               238322.0689475235         432295.1661425467
J81               238354.2075581898         432826.2903286454
J80               238315.3153212521         432799.5437897771
J79               238355.7595946312         432827.2813166527
J78               238451.9865003035         432611.0355743611
J77               238446.5480324426         432564.4169553275
J76               237870.4255027843         432244.3722430303
J75               237924.264273972         432232.8781666571
J74               237899.1547535342         432168.4131101227
J73               238233.3035853691         433005.4158152297
J72               238372.1111505326         432837.7219193131
J71               238298.0161179681         432738.4688591534
J70               238293.0724611779         432703.5658629514
J69               238275.6013998773         430553.6574198399
J68               238167.7646748309         430560.5717921269
J67               238184.0470573846         431427.6793263949
J66               238078.7995986421         431591.3658881144
J65               237988.0381643134         431869.572785246
J64               238136.0404780266         431418.3737666898
J63               238328.3841776804         432703.5658629514
J62               238314.5262821019         432186.0203654281
J61               238326.8578402987         432037.5774925302
J60               238311.8727768975         432217.9623089756
J59               238136.9115598023         432191.7640863964
J58               238138.6375882426         432151.9910101404
J57               238136.6804377313         432217.1679066545
J56               238337.0659251015         430619.1587025423
J55               238353.9799955162         432254.0529910963
J54               238359.1366812853         431649.0163866759
J53               238360.2828725251         431635.2189477947
J52               238374.5009682495         431464.066613046
J51               238285.8130113669         430536.5398318113
J50               238379.0452870341         430452.7667427938
J49               238176.8902642683         431615.4380782681
J48               238225.4969293146         431437.9843322587
J47               238550.3433947056         431467.1405042042
J46               238541.6533840054         431638.2025672949
J45               238273.6488401205         432034.8985785358
J44               238673.7174580259         430072.5600488417
J43               238676.1146090762         430074.8035038012
J42               238453.9899385982         430348.5202008946
J41               238456.8141335114         430350.5875477672
J40               237891.0882076427         431659.1046700067
J39               238041.4722523602         431394.3947994894
J38               237688.1574153504         432314.5074305176
J37               237849.4203764268         432172.2089525578
J36               237902.154870349         431359.0691189012
J35               237866.4535940092         432003.8794842755
J34               238368.8734290249         432234.8647780485
J33               237919.0966198478         432016.8365339674
J32               237968.9032885452         431864.8777247353
J31               238401.5499703643         432564.4031868728
J30               238403.324743813         432585.09024807
J29               238307.2583160883         432285.2075296382
J28               238292.3841776804         432617.2202783848
J27               238328.3841776805         432615.8498830508
J26               238366.3841776805         432600.5879018129
J25               238081.2199282884         432149.0741735818
J24               238087.5004754758         432025.4421786108
J23               238447.1244172539         432703.5658629512
J22               238421.6888970395         432330.0321273911
J21               238198.5001708884         432238.4438492018
J20               238207.0553157506         432283.0176681199
J19               238141.9490324258         432244.618217509
J18               238161.6893716259         432568.9965129497
J17               238124.0887904446         432575.9852066616
J16               238160.383377616         432340.6609018417
J15               238202.0134092372         432155.2105232963
J14               238210.2805243917         432031.6794466501
J13               238151.3668802849         432293.6868717337
J12               238102.9929058953         432252.0817212416
J11               238063.3780362213         432259.6714318729
J10               238144.9181354299         432028.3590151691
J09               238331.3231587512         432868.1785675597
J08               238366.3841776804         432703.5658629514
J07               238395.3178819684         432703.5658629513
J06               238404.4172785822         432611.0355743612
J05               238400.245576388         432703.5658629513
J04               238263.3951569984         432158.3287368571
J03               238343.6552164035         430258.1260311694
J02               238565.7129625301         429987.0833322498
J01               238486.3330747578         429793.603986921
Junction               238395.3178819684         432703.5658629513

[PIPES]
;ID              Node1           Node2           Length          Diameter        Roughness       MinorLoss       Status
